#---------------------------------------------------------------------------
#  CTI file converted from solution object
#---------------------------------------------------------------------------

units(length = "cm", time = "s", quantity = "mol", act_energy = "cal/mol")

ideal_gas(name = "reduced_139", 
     elements = "H C O N", 
     species = """ H H2 IC3H5CHO O IC3H5CO O2 OH IC3H6CO H2O N2 HO2
                   TC3H6OH H2O2 CH3OCO IC3H5OH CO CO2
                   C3H8 CH2O IC3H7 CH2CCH2OH HCO NC3H7
                   C3H6 C3H5-A HOCHO C3H5-S C3H5OH
                   C3H5-T MB C3H4-P MB2D C3H4-A MB2J
                   C3H3 MB2O HOCH2O C3H2 CH3OH C3H5O
                   CH2OH C3H6OOH-2,1 MB3D CH3O
                   C3H6OOH-3,1 MB3J CH3O2H MB3O CH3O2
                   C3H6OOH1-2O2 CH4 C3H6OOH1-3O2 CH3
                   CH3CHCOCH3 MB4*O CH2 C2H3COCH3 MB4J
                   CH2(S) NC3H7O2H MB4O C MBM*O CH
                   NC3H7O2 NC3H7CHO MBMJ C2H6 NC3H7CO
                   MBMJ*O C2H5 NC3H7O C3H6CHO-1 MBMO
                   C2H4 C3H6CHO-2 ME2*O C2H3 C3H6O1-2
                   C3H6CHO-3 ME2J C2H2 C3H6O1-3
                   C2H5CHCO MP2D C2H C3KET12 MP2D3J
                   CH3CHO C3KET13 CH3CO CH2CHO CH2CO
                   MP3J HCCO CH2CHCHCO HCCOH IC4H8
                   CHOOCO CH3CHCO IC4H7 BAOJ C5H7O2
                   C4H10 CJHCHCHCO C2H5O C4H8-1
                   CH3CHCHO C4H8-2 ME SC2H4OH BA4J
                   SC4H9 CH2COOH MEMJ C2H5O2 C2H3CO2
                   C4H71-3 MP2DMJ C2H4O1-2 MP2D2J
                   C2H3O1-2 CH3COCH3 IC4H8OH CH3COCH2
                   C4H6 IC3H7CHO ME2J*O TC3H6CHO MB4J*O
                   C2H3CHO IC3H6CHO C2H3CO C2H5CHO
                   C2H5CO C4H8O1-2 C4H8O1-3 IC4H7OH
                   C4H8O2-3 """, 
     reactions = "all", 
     initial_state = state(temperature = 300.0, pressure = 101324.99999999997)   )

#---------------------------------------------------------------------------
#  Species data
#---------------------------------------------------------------------------

species(name = "H",
    atoms = "H:1", 
    thermo = (
       NASA(   [300.0, 1000.0], [2.500000000e+00, 0.000000000e+00,
                0.000000000e+00, 0.000000000e+00,
                0.000000000e+00, 2.547163000e+04,
                -4.601176000e-01]  ),
       NASA(   [1000.0, 5000.0], [2.500000000e+00, 0.000000000e+00,
                0.000000000e+00, 0.000000000e+00,
                0.000000000e+00, 2.547163000e+04,
                -4.601176000e-01]  )
                ),
    transport = gas_transport(
                geom = "atom",
                diam = 2.05, 
                well_depth = 145.0, 
                polar = 0.0, 
                rot_relax = 0.0)
       )

species(name = "H2",
    atoms = "H:2", 
    thermo = (
       NASA(   [300.0, 1000.0], [3.298124000e+00, 8.249442000e-04,
                -8.143015000e-07,
                -9.475434000e-11, 4.134872000e-13,
                -1.012521000e+03,
                -3.294094000e+00]  ),
       NASA(   [1000.0, 5000.0], [2.991423000e+00, 7.000644000e-04,
                -5.633829000e-08,
                -9.231578000e-12, 1.582752000e-15,
                -8.350340000e+02,
                -1.355110000e+00]  )
                ),
    transport = gas_transport(
                geom = "linear",
                diam = 2.9200000000000004, 
                well_depth = 38.0, 
                polar = 0.7900000000000001, 
                rot_relax = 280.0)
       )

species(name = "IC3H5CHO",
    atoms = "C:4, H:6, O:1", 
    thermo = (
       NASA(   [300.0, 1396.0], [6.271837930e-01, 4.667802540e-02,
                -3.744306310e-05, 1.583305420e-08,
                -2.739521550e-12,
                -1.572031170e+04, 2.160342940e+01]  ),
       NASA(   [1396.0, 5000.0], [1.362039580e+01, 1.379171920e-02,
                -4.733701180e-06, 7.366552260e-10,
                -4.200979740e-14,
                -2.000252740e+04,
                -4.731845310e+01]  )
                ),
    transport = gas_transport(
                geom = "nonlinear",
                diam = 5.352, 
                well_depth = 436.4, 
                polar = 0.0, 
                rot_relax = 1.0)
       )

species(name = "O",
    atoms = "O:1", 
    thermo = (
       NASA(   [300.0, 1000.0], [2.946429000e+00, -1.638166000e-03,
                2.421032000e-06, -1.602843000e-09,
                3.890696000e-13, 2.914764000e+04,
                2.963995000e+00]  ),
       NASA(   [1000.0, 5000.0], [2.542060000e+00, -2.755062000e-05,
                -3.102803000e-09, 4.551067000e-12,
                -4.368052000e-16, 2.923080000e+04,
                4.920308000e+00]  )
                ),
    transport = gas_transport(
                geom = "atom",
                diam = 2.7500000000000004, 
                well_depth = 80.0, 
                polar = 0.0, 
                rot_relax = 0.0)
       )

species(name = "IC3H5CO",
    atoms = "C:4, H:5, O:1", 
    thermo = (
       NASA(   [300.0, 1397.0], [1.850970690e+00, 4.188558460e-02,
                -3.625537310e-05, 1.656906590e-08,
                -3.058508460e-12, 1.703814410e+02,
                1.530144330e+01]  ),
       NASA(   [1397.0, 5000.0], [1.306674370e+01, 1.167042440e-02,
                -3.991065230e-06, 6.194981480e-10,
                -3.593482490e-14,
                -3.365193440e+03,
                -4.358030900e+01]  )
                ),
    transport = gas_transport(
                geom = "nonlinear",
                diam = 5.352, 
                well_depth = 436.4, 
                polar = 0.0, 
                rot_relax = 1.0)
       )

species(name = "O2",
    atoms = "O:2", 
    thermo = (
       NASA(   [300.0, 1000.0], [3.212936000e+00, 1.127486000e-03,
                -5.756150000e-07, 1.313877000e-09,
                -8.768554000e-13,
                -1.005249000e+03, 6.034738000e+00]  ),
       NASA(   [1000.0, 5000.0], [3.697578000e+00, 6.135197000e-04,
                -1.258842000e-07, 1.775281000e-11,
                -1.136435000e-15,
                -1.233930000e+03, 3.189166000e+00]  )
                ),
    transport = gas_transport(
                geom = "linear",
                diam = 3.458, 
                well_depth = 107.4, 
                polar = 1.6, 
                rot_relax = 3.8)
       )

species(name = "OH",
    atoms = "H:1, O:1", 
    thermo = (
       NASA(   [300.0, 1710.0], [3.418962260e+00, 3.192558010e-04,
                -3.082927170e-07, 3.644074940e-10,
                -1.001954790e-13, 3.452644480e+03,
                2.544333720e+00]  ),
       NASA(   [1710.0, 5000.0], [2.853760400e+00, 1.029943340e-03,
                -2.326664770e-07, 1.937507040e-11,
                -3.157598470e-16, 3.699497200e+03,
                5.787568250e+00]  )
                ),
    transport = gas_transport(
                geom = "linear",
                diam = 2.7500000000000004, 
                well_depth = 80.0, 
                polar = 0.0, 
                rot_relax = 0.0)
       )

species(name = "IC3H6CO",
    atoms = "C:4, H:6, O:1", 
    thermo = (
       NASA(   [300.0, 1397.0], [2.280390550e+00, 4.170169890e-02,
                -3.250896610e-05, 1.372434190e-08,
                -2.405731320e-12,
                -1.639397120e+04, 1.381877140e+01]  ),
       NASA(   [1397.0, 5000.0], [1.325482320e+01, 1.401427870e-02,
                -4.789102150e-06, 7.429243420e-10,
                -4.307375660e-14,
                -2.005297790e+04,
                -4.448102210e+01]  )
                ),
    transport = gas_transport(
                geom = "nonlinear",
                diam = 5.352, 
                well_depth = 436.4, 
                polar = 0.0, 
                rot_relax = 1.0)
       )

species(name = "H2O",
    atoms = "H:2, O:1", 
    thermo = (
       NASA(   [300.0, 1000.0], [3.386842000e+00, 3.474982000e-03,
                -6.354696000e-06, 6.968581000e-09,
                -2.506588000e-12,
                -3.020811000e+04, 2.590233000e+00]  ),
       NASA(   [1000.0, 5000.0], [2.672146000e+00, 3.056293000e-03,
                -8.730260000e-07, 1.200996000e-10,
                -6.391618000e-15,
                -2.989921000e+04, 6.862817000e+00]  )
                ),
    transport = gas_transport(
                geom = "nonlinear",
                diam = 2.6050000000000004, 
                well_depth = 572.4, 
                polar = 0.0, 
                rot_relax = 4.0, 
                dipole= 1.8440005262719967)
       )

species(name = "N2",
    atoms = "N:2", 
    thermo = (
       NASA(   [300.0, 1000.0], [3.298677000e+00, 1.408240000e-03,
                -3.963222000e-06, 5.641515000e-09,
                -2.444855000e-12,
                -1.020900000e+03, 3.950372000e+00]  ),
       NASA(   [1000.0, 5000.0], [2.926640000e+00, 1.487977000e-03,
                -5.684761000e-07, 1.009704000e-10,
                -6.753351000e-15,
                -9.227977000e+02, 5.980528000e+00]  )
                ),
    transport = gas_transport(
                geom = "linear",
                diam = 3.621, 
                well_depth = 97.53, 
                polar = 1.76, 
                rot_relax = 4.0)
       )

species(name = "HO2",
    atoms = "H:1, O:2", 
    thermo = (
       NASA(   [200.0, 1000.0], [4.301798010e+00, -4.749120510e-03,
                2.115828910e-05, -2.427638940e-08,
                9.292251240e-12, 2.948080400e+02,
                3.716662450e+00]  ),
       NASA(   [1000.0, 3500.0], [4.017210900e+00, 2.239820130e-03,
                -6.336581500e-07, 1.142463700e-10,
                -1.079085350e-14, 1.118567130e+02,
                3.785102150e+00]  )
                ),
    transport = gas_transport(
                geom = "nonlinear",
                diam = 3.458, 
                well_depth = 107.4, 
                polar = 0.0, 
                rot_relax = 1.0)
       )

species(name = "TC3H6OH",
    atoms = "C:3, H:7, O:1", 
    thermo = (
       NASA(   [300.0, 1389.0], [2.318039560e+00, 3.173049800e-02,
                -1.696387060e-05, 4.599987730e-09,
                -5.182855200e-13,
                -1.393827120e+04, 1.711058680e+01]  ),
       NASA(   [1389.0, 5000.0], [1.012569200e+01, 1.618684270e-02,
                -5.524059570e-06, 8.560519320e-10,
                -4.959355420e-14,
                -1.700831120e+04,
                -2.592541630e+01]  )
                ),
    transport = gas_transport(
                geom = "nonlinear",
                diam = 5.036, 
                well_depth = 459.5, 
                polar = 0.0, 
                rot_relax = 1.0, 
                dipole= 1.7000004851748343)
       )

species(name = "H2O2",
    atoms = "H:2, O:2", 
    thermo = (
       NASA(   [300.0, 1000.0], [3.388754000e+00, 6.569226000e-03,
                -1.485013000e-07,
                -4.625806000e-09, 2.471515000e-12,
                -1.766315000e+04, 6.785363000e+00]  ),
       NASA(   [1000.0, 5000.0], [4.573167000e+00, 4.336136000e-03,
                -1.474689000e-06, 2.348904000e-10,
                -1.431654000e-14,
                -1.800696000e+04, 5.011370000e-01]  )
                ),
    transport = gas_transport(
                geom = "nonlinear",
                diam = 3.458, 
                well_depth = 107.4, 
                polar = 0.0, 
                rot_relax = 3.8)
       )

species(name = "CH3OCO",
    atoms = "C:2, H:3, O:2", 
    thermo = (
       NASA(   [300.0, 1601.0], [4.162154060e+00, 1.380375110e-02,
                -3.084861090e-07,
                -4.564308140e-09, 1.469096320e-12,
                -2.116401150e+04, 8.683272140e+00]  ),
       NASA(   [1601.0, 5000.0], [9.736598030e+00, 7.424327130e-03,
                -2.656417790e-06, 4.250311430e-10,
                -2.518249240e-14,
                -2.375255350e+04,
                -2.359508540e+01]  )
                ),
    transport = gas_transport(
                geom = "nonlinear",
                diam = 4.037, 
                well_depth = 395.0, 
                polar = 0.0, 
                rot_relax = 1.0, 
                dipole= 1.3000003710160497)
       )

species(name = "IC3H5OH",
    atoms = "C:3, H:6, O:1", 
    thermo = (
       NASA(   [300.0, 1374.0], [1.583763910e+00, 3.162153660e-02,
                -1.736649420e-05, 4.189276630e-09,
                -2.798996200e-13,
                -2.126434960e+04, 1.883137660e+01]  ),
       NASA(   [1374.0, 5000.0], [1.073810250e+01, 1.316981940e-02,
                -4.415296220e-06, 6.770098370e-10,
                -3.896089010e-14,
                -2.472983210e+04,
                -3.136340500e+01]  )
                ),
    transport = gas_transport(
                geom = "nonlinear",
                diam = 5.036, 
                well_depth = 459.5, 
                polar = 0.0, 
                rot_relax = 1.0, 
                dipole= 1.7000004851748343)
       )

species(name = "CO",
    atoms = "C:1, O:1", 
    thermo = (
       NASA(   [300.0, 1429.0], [3.190363520e+00, 8.944199720e-04,
                -3.249275630e-08,
                -1.045999670e-10, 2.419656930e-14,
                -1.428690540e+04, 5.332779140e+00]  ),
       NASA(   [1429.0, 5000.0], [3.112168900e+00, 1.159482830e-03,
                -3.384803620e-07, 4.414030980e-11,
                -2.128622280e-15,
                -1.427185390e+04, 5.717251770e+00]  )
                ),
    transport = gas_transport(
                geom = "linear",
                diam = 3.65, 
                well_depth = 98.1, 
                polar = 1.9500000000000002, 
                rot_relax = 1.8)
       )

species(name = "CO2",
    atoms = "C:1, O:2", 
    thermo = (
       NASA(   [300.0, 1380.0], [2.579304900e+00, 8.246849870e-03,
                -6.427160470e-06, 2.546370240e-09,
                -4.120304430e-13,
                -4.841628300e+04, 8.811410410e+00]  ),
       NASA(   [1380.0, 5000.0], [5.189530180e+00, 2.060064760e-03,
                -7.335753240e-07, 1.170043740e-10,
                -6.917292150e-15,
                -4.931789530e+04,
                -5.182893030e+00]  )
                ),
    transport = gas_transport(
                geom = "linear",
                diam = 3.763, 
                well_depth = 244.0, 
                polar = 2.6500000000000004, 
                rot_relax = 2.1)
       )

species(name = "C3H8",
    atoms = "C:3, H:8", 
    thermo = (
       NASA(   [300.0, 1387.0], [-3.082300870e-01, 3.653318010e-02,
                -1.976109260e-05, 5.152833440e-09,
                -5.063366490e-13,
                -1.397921980e+04, 2.404787330e+01]  ),
       NASA(   [1387.0, 5000.0], [9.314500830e+00, 1.735771540e-02,
                -5.942223860e-06, 9.229397620e-10,
                -5.355766040e-14,
                -1.772342340e+04,
                -2.892415170e+01]  )
                ),
    transport = gas_transport(
                geom = "nonlinear",
                diam = 4.81, 
                well_depth = 303.4, 
                polar = 0.0, 
                rot_relax = 1.0)
       )

species(name = "CH2O",
    atoms = "C:1, H:2, O:1", 
    thermo = (
       NASA(   [300.0, 1486.0], [3.007541970e+00, 3.047294960e-03,
                5.251092460e-06, -5.120192810e-09,
                1.271337950e-12, -1.411883970e+04,
                8.101202330e+00]  ),
       NASA(   [1486.0, 5000.0], [4.020683940e+00, 5.099034170e-03,
                -1.764304800e-06, 2.760258790e-10,
                -1.609980420e-14,
                -1.492872580e+04, 1.065255470e+00]  )
                ),
    transport = gas_transport(
                geom = "nonlinear",
                diam = 3.59, 
                well_depth = 498.0, 
                polar = 0.0, 
                rot_relax = 2.0)
       )

species(name = "IC3H7",
    atoms = "C:3, H:7", 
    thermo = (
       NASA(   [300.0, 1373.0], [1.634175890e+00, 2.401713720e-02,
                -4.728080670e-06,
                -3.243546030e-09, 1.235390440e-12,
                9.207528890e+03, 1.838480820e+01]  ),
       NASA(   [1373.0, 5000.0], [8.147052170e+00, 1.587271060e-02,
                -5.446115410e-06, 8.472076890e-10,
                -4.921787520e-14, 6.180733670e+03,
                -1.919808500e+01]  )
                ),
    transport = gas_transport(
                geom = "nonlinear",
                diam = 4.81, 
                well_depth = 303.4, 
                polar = 0.0, 
                rot_relax = 1.0)
       )

species(name = "CH2CCH2OH",
    atoms = "C:3, H:5, O:1", 
    thermo = (
       NASA(   [300.0, 1372.0], [2.884225440e+00, 2.424280710e-02,
                -1.141522680e-05, 1.717753340e-09,
                1.421774540e-13, 1.179356150e+04,
                1.521023350e+01]  ),
       NASA(   [1372.0, 5000.0], [9.707020270e+00, 1.139726600e-02,
                -3.779939620e-06, 5.752092770e-10,
                -3.292291250e-14, 9.132128840e+03,
                -2.250129330e+01]  )
                ),
    transport = gas_transport(
                geom = "nonlinear",
                diam = 4.997000000000001, 
                well_depth = 481.5, 
                polar = 0.0, 
                rot_relax = 1.0, 
                dipole= 1.7000004851748343)
       )

species(name = "HCO",
    atoms = "C:1, H:1, O:1", 
    thermo = (
       NASA(   [300.0, 1690.0], [3.810499650e+00, 8.132698250e-04,
                3.131647010e-06, -2.394782680e-09,
                5.068945540e-13, 4.038599010e+03,
                4.948431650e+00]  ),
       NASA(   [1690.0, 5000.0], [3.441481640e+00, 3.521577190e-03,
                -1.241361180e-06, 1.973286440e-10,
                -1.165386160e-14, 3.974096840e+03,
                6.245934560e+00]  )
                ),
    transport = gas_transport(
                geom = "nonlinear",
                diam = 3.59, 
                well_depth = 498.0, 
                polar = 0.0, 
                rot_relax = 0.0)
       )

species(name = "NC3H7",
    atoms = "C:3, H:7", 
    thermo = (
       NASA(   [300.0, 1386.0], [4.743653290e-01, 3.191903670e-02,
                -1.719097800e-05, 4.459278870e-09,
                -4.366753980e-13, 1.063145650e+04,
                2.326709290e+01]  ),
       NASA(   [1386.0, 5000.0], [8.886350470e+00, 1.522732790e-02,
                -5.219058600e-06, 8.112592080e-10,
                -4.710280590e-14, 7.346715840e+03,
                -2.307277910e+01]  )
                ),
    transport = gas_transport(
                geom = "nonlinear",
                diam = 4.81, 
                well_depth = 303.4, 
                polar = 0.0, 
                rot_relax = 1.0)
       )

species(name = "C3H6",
    atoms = "C:3, H:6", 
    thermo = (
       NASA(   [300.0, 1388.0], [3.946154440e-01, 2.891076620e-02,
                -1.548868080e-05, 3.888142090e-09,
                -3.378903520e-13, 1.177601320e+03,
                2.190037360e+01]  ),
       NASA(   [1388.0, 5000.0], [8.015959580e+00, 1.370236340e-02,
                -4.662497330e-06, 7.212544020e-10,
                -4.173701260e-14,
                -1.767493030e+03,
                -2.001606680e+01]  )
                ),
    transport = gas_transport(
                geom = "nonlinear",
                diam = 4.14, 
                well_depth = 307.8, 
                polar = 0.0, 
                rot_relax = 1.0)
       )

species(name = "C3H5-A",
    atoms = "C:3, H:5", 
    thermo = (
       NASA(   [300.0, 1397.0], [-5.291319580e-01, 3.345591000e-02,
                -2.534010270e-05, 1.028657540e-08,
                -1.732583400e-12, 1.949414230e+04,
                2.461723150e+01]  ),
       NASA(   [1397.0, 5000.0], [8.458839580e+00, 1.126954830e-02,
                -3.837928640e-06, 5.940591190e-10,
                -3.439180300e-14, 1.646832890e+04,
                -2.327042660e+01]  )
                ),
    transport = gas_transport(
                geom = "nonlinear",
                diam = 4.22, 
                well_depth = 316.0, 
                polar = 0.0, 
                rot_relax = 1.0)
       )

species(name = "HOCHO",
    atoms = "C:1, H:2, O:2", 
    thermo = (
       NASA(   [300.0, 1419.0], [1.280690210e+00, 1.528877580e-02,
                -5.641504760e-06,
                -1.229687990e-09, 8.142732330e-13,
                -4.643475240e+04, 1.831420810e+01]  ),
       NASA(   [1419.0, 5000.0], [7.671344400e+00, 4.434263730e-03,
                -1.608674360e-06, 2.597700200e-10,
                -1.548997040e-14,
                -4.897086600e+04,
                -1.730244180e+01]  )
                ),
    transport = gas_transport(
                geom = "nonlinear",
                diam = 3.97, 
                well_depth = 436.0, 
                polar = 0.0, 
                rot_relax = 2.0)
       )

species(name = "C3H5-S",
    atoms = "C:3, H:5", 
    thermo = (
       NASA(   [300.0, 1390.0], [1.328073350e+00, 2.531079140e-02,
                -1.515304390e-05, 4.743455650e-09,
                -6.246660840e-13, 3.079811000e+04,
                1.833287870e+01]  ),
       NASA(   [1390.0, 5000.0], [7.887658790e+00, 1.130125910e-02,
                -3.842131300e-06, 5.939826770e-10,
                -3.435671750e-14, 2.834849130e+04,
                -1.742915890e+01]  )
                ),
    transport = gas_transport(
                geom = "nonlinear",
                diam = 4.22, 
                well_depth = 316.0, 
                polar = 0.0, 
                rot_relax = 1.0)
       )

species(name = "C3H5OH",
    atoms = "C:3, H:6, O:1", 
    thermo = (
       NASA(   [300.0, 1388.0], [1.088993140e+00, 3.284817690e-02,
                -1.913226480e-05, 5.216351360e-09,
                -4.823945660e-13,
                -1.662824630e+04, 2.227545350e+01]  ),
       NASA(   [1388.0, 5000.0], [1.028182220e+01, 1.342480120e-02,
                -4.470394480e-06, 6.819241950e-10,
                -3.908995530e-14,
                -1.999601140e+04,
                -2.777366800e+01]  )
                ),
    transport = gas_transport(
                geom = "nonlinear",
                diam = 4.997000000000001, 
                well_depth = 481.5, 
                polar = 0.0, 
                rot_relax = 1.0, 
                dipole= 1.7000004851748343)
       )

species(name = "C3H5-T",
    atoms = "C:3, H:5", 
    thermo = (
       NASA(   [300.0, 1382.0], [2.179166440e+00, 2.038266230e-02,
                -7.914138340e-06, 4.769061870e-10,
                2.703985360e-13, 2.960025350e+04,
                1.487856840e+01]  ),
       NASA(   [1382.0, 5000.0], [7.374924430e+00, 1.175100610e-02,
                -4.000212830e-06, 6.189473950e-10,
                -3.582150180e-14, 2.739821080e+04,
                -1.434786550e+01]  )
                ),
    transport = gas_transport(
                geom = "nonlinear",
                diam = 4.22, 
                well_depth = 316.0, 
                polar = 0.0, 
                rot_relax = 1.0)
       )

species(name = "MB",
    atoms = "C:5, H:10, O:2", 
    thermo = (
       NASA(   [300.0, 1380.0], [3.162088250e+00, 5.529153580e-02,
                -3.116101020e-05, 8.423941290e-09,
                -8.722220210e-13,
                -5.733852400e+04, 1.397238170e+01]  ),
       NASA(   [1380.0, 5000.0], [1.900947250e+01, 2.365037220e-02,
                -8.229784520e-06, 1.292462650e-09,
                -7.558628360e-14,
                -6.349891520e+04,
                -7.324690990e+01]  )
                ),
    transport = gas_transport(
                geom = "nonlinear",
                diam = 2.05, 
                well_depth = 468.0, 
                polar = 0.0, 
                rot_relax = 0.0)
       )

species(name = "C3H4-P",
    atoms = "C:3, H:4", 
    thermo = (
       NASA(   [300.0, 1400.0], [3.029730000e+00, 1.498961000e-02,
                -1.398500000e-06,
                -3.969619000e-09, 1.388217000e-12,
                2.148408000e+04, 8.004594000e+00]  ),
       NASA(   [1400.0, 4000.0], [9.768102000e+00, 5.219151000e-03,
                -3.753140000e-07,
                -2.992191000e-10, 5.107878000e-14,
                1.860277000e+04, -3.020678000e+01]  )
                ),
    transport = gas_transport(
                geom = "linear",
                diam = 4.29, 
                well_depth = 324.8, 
                polar = 0.0, 
                rot_relax = 1.0)
       )

species(name = "MB2D",
    atoms = "C:5, H:8, O:2", 
    thermo = (
       NASA(   [300.0, 1382.0], [2.122808880e+00, 5.412310450e-02,
                -3.474381440e-05, 1.136206950e-08,
                -1.541176890e-12,
                -4.383028470e+04, 2.041198150e+01]  ),
       NASA(   [1382.0, 5000.0], [1.808971110e+01, 1.986869310e-02,
                -6.950069860e-06, 1.095348480e-09,
                -6.421764940e-14,
                -4.976527390e+04,
                -6.656550650e+01]  )
                ),
    transport = gas_transport(
                geom = "nonlinear",
                diam = 5.23, 
                well_depth = 468.5, 
                polar = 0.0, 
                rot_relax = 1.0)
       )

species(name = "C3H4-A",
    atoms = "C:3, H:4", 
    thermo = (
       NASA(   [300.0, 1400.0], [2.539831000e+00, 1.633437000e-02,
                -1.764950000e-06,
                -4.647365000e-09, 1.729131000e-12,
                2.251243000e+04, 9.935702000e+00]  ),
       NASA(   [1400.0, 4000.0], [9.776256000e+00, 5.302138000e-03,
                -3.701118000e-07,
                -3.026386000e-10, 5.089581000e-14,
                1.954972000e+04, -3.077061000e+01]  )
                ),
    transport = gas_transport(
                geom = "linear",
                diam = 4.29, 
                well_depth = 324.8, 
                polar = 0.0, 
                rot_relax = 1.0)
       )

species(name = "MB2J",
    atoms = "C:5, H:9, O:2", 
    thermo = (
       NASA(   [300.0, 1378.0], [2.837076610e+00, 5.721494060e-02,
                -3.662058720e-05, 1.180107710e-08,
                -1.565373950e-12,
                -3.639443270e+04, 1.550515960e+01]  ),
       NASA(   [1378.0, 5000.0], [2.014912110e+01, 2.040834810e-02,
                -7.174645450e-06, 1.134548970e-09,
                -6.667245680e-14,
                -4.286216020e+04,
                -7.891817490e+01]  )
                ),
    transport = gas_transport(
                geom = "nonlinear",
                diam = 5.23, 
                well_depth = 468.5, 
                polar = 0.0, 
                rot_relax = 1.0)
       )

species(name = "C3H3",
    atoms = "C:3, H:3", 
    thermo = (
       NASA(   [300.0, 1000.0], [4.754200000e+00, 1.108028000e-02,
                2.793323000e-07, -5.479212000e-09,
                1.949629000e-12, 3.988883000e+04,
                5.854549000e-01]  ),
       NASA(   [1000.0, 4000.0], [8.831047000e+00, 4.357195000e-03,
                -4.109067000e-07,
                -2.368723000e-10, 4.376520000e-14,
                3.847420000e+04, -2.177919000e+01]  )
                ),
    transport = gas_transport(
                geom = "linear",
                diam = 4.29, 
                well_depth = 324.8, 
                polar = 0.0, 
                rot_relax = 1.0)
       )

species(name = "MB2O",
    atoms = "C:5, H:9, O:3", 
    thermo = (
       NASA(   [300.0, 1388.0], [1.107236490e+00, 6.989631650e-02,
                -5.136541060e-05, 1.951925150e-08,
                -3.058453870e-12,
                -5.043833290e+04, 2.629708530e+01]  ),
       NASA(   [1388.0, 5000.0], [2.190861800e+01, 2.129842160e-02,
                -7.444849570e-06, 1.172842160e-09,
                -6.874354760e-14,
                -5.770304090e+04,
                -8.548845880e+01]  )
                ),
    transport = gas_transport(
                geom = "nonlinear",
                diam = 5.96, 
                well_depth = 523.6, 
                polar = 0.0, 
                rot_relax = 1.0)
       )

species(name = "HOCH2O",
    atoms = "C:1, H:3, O:2", 
    thermo = (
       NASA(   [300.0, 1452.0], [4.111831450e+00, 7.538506970e-03,
                3.773373700e-06, -5.387460050e-09,
                1.456158870e-12, -2.124719180e+04,
                7.468072540e+00]  ),
       NASA(   [1452.0, 5000.0], [6.395215150e+00, 7.436730430e-03,
                -2.504223540e-06, 3.848797120e-10,
                -2.217786890e-14,
                -2.255577580e+04,
                -6.638655830e+00]  )
                ),
    transport = gas_transport(
                geom = "nonlinear",
                diam = 4.41, 
                well_depth = 470.6, 
                polar = 0.0, 
                rot_relax = 1.5)
       )

species(name = "C3H2",
    atoms = "C:3, H:2", 
    thermo = (
       NASA(   [150.0, 1000.0], [3.166714000e+00, 2.482572000e-02,
                -4.591637000e-05, 4.268019000e-08,
                -1.482152000e-11, 6.350421000e+04,
                8.869446000e+00]  ),
       NASA(   [1000.0, 4000.0], [7.670981000e+00, 2.748749000e-03,
                -4.370943000e-07,
                -6.455599000e-11, 1.663887000e-14,
                6.259722000e+04, -1.236890000e+01]  )
                ),
    transport = gas_transport(
                geom = "nonlinear",
                diam = 4.1, 
                well_depth = 209.0, 
                polar = 0.0, 
                rot_relax = 1.0)
       )

species(name = "CH3OH",
    atoms = "C:1, H:4, O:1", 
    thermo = (
       NASA(   [300.0, 1985.0], [1.821768440e+00, 1.233264200e-02,
                -2.737421770e-06,
                -1.073873180e-09, 4.236448370e-13,
                -2.522222070e+04, 1.481043000e+01]  ),
       NASA(   [1985.0, 5000.0], [3.928675130e+00, 9.816260740e-03,
                -3.406154760e-06, 5.355101970e-10,
                -3.137760290e-14,
                -2.614541750e+04, 2.694644830e+00]  )