#---------------------------------------------------------------------------
#  CTI file converted from solution object
#---------------------------------------------------------------------------

units(length = "cm", time = "s", quantity = "mol", act_energy = "cal/mol")

ideal_gas(name = "reduced_261", 
     elements = "C H O N", 
     species = """ dmf25 dmf24 cc31m2cho h34de2o h35de2o p23de1o2m dmf34
                   dmf25acar dmf25bcar dmf24bcar
                   dmf34acar dmf25opb1 dmf25opb2
                   p2e4car dmf252j dmf242j dmf244j
                   dmf25ch2 h45de2o3j h35de2o1j
                   che21o4j cpropc3h4-a che21o5j
                   h25de1o1j h13de1o6j chde241o
                   chde251o p14de1j dmf252h3j h4e2o3j
                   dmf253h2j h4e2o5j dmf253j h34de2o4j
                   p1e3y1o dmf252oj mf25cho mf25cjo
                   mf2j5cho h34de26o h34de21o o*ccj*o
                   hmf5oj dcho25f dchof2j f2cho5j m2e5f
                   m2je5f m25jef-a hpt56de3o4j
                   hpt46de3o2j che21o4j6m chde241o6m
                   hpt45de2o3j hpt35de2o1j che21o4j5m
                   e2f e2f2j-a m2v5f v2f dmf252oh3j
                   mf25oh h3e2o5oh5j h25o3j h3e25o
                   h3e25o1j h3e15o1j p3e2o p3e25o5j mf2
                   p34de2o-t mf22j p34de1o2j-c1
                   p34de1o2j-c2 p14de1o3j-c1
                   p14de1o3j-rc p24de1o1j-c1 cpe31o2j
                   mf25j p13de1o4j mf22oj f2cho f2cjo
                   mf25oj p3e1o2j-c1 p3e1o2j-c2
                   p3e1o2j-t1 p15de1oh3j-c1 cpe24j5oh
                   p2e1o1j-c1 p3e1o1j-c2 p4e2o3j-c1
                   p4e2o3j-c2 p3e2o1j-c1 p3e2o1j-c2
                   c-c31o2c2h4 p3e1o1j-c1 mf22oh3j
                   chcch2oh p3e1o4oh2j p14o3j mf25oh4j
                   p4e2o5oh3j p25o4j p12de p2y p2y4j
                   c4h6-1 chcchch3 chcch2ch2 b13de2mj
                   chde241obirad bcyc-3.1.0-h3e6o
                   h135te1o ch2chchco ch2ch2chco
                   ch2chch2co mvk mjvk mvjk-p mvjk-s
                   p134te1o c#ccho evk furan f2j
                   c4h5o-3 chchchco chcchco chcchcho
                   ch2chco chcch2cho chchcho c6h6 c6h5
                   c5h5 c5h6 c6h5o c6h5oh o-c6h4o2
                   c6h5c2h3 c6h5cch2 c6h5oo c6h4oh
                   oc6h4oh c5h4oh o-oc6h5oj p-c6h4o2
                   c5h4o c5h5o p-c6h3o2 c#cc*ccj c5h5oh
                   cj*cc*cc*o c5h3o cj*cc*o c*ccjc*c
                   c5h7 c*cc*ccoh c*cc*ccj p13de hoco
                   c6h2 c-c6h4 h h2 o o2 oh oh* h2o n2
                   ho2 h2o2 co co2 ch2o hco hcoh hocho
                   hoch2o ch3oh ch2oh ch3o ch3o2h ch3o2
                   ch4 ch3 ch2 ch2(s) c ch ch* c2h6
                   c2h5 c2h4 c2h3 c2h2 c2h ch3cho
                   c2h3oh c2h2oh ch3co ch2cho ch2co
                   hcco hccoh ch3co3h ch3co3 ch3co2
                   sc2h4oh c2h3o1-2 ch3coch2 c2h3cho
                   c2h3co c2h5co ch3oco ic3h7 nc3h7
                   c3h6 c3h5-a c3h5-s c3h5-t c3h4-p
                   c3h4-a c3h3 c3h5o ch3chco h2cc
                   c4h8-1 sc4h9 c4h71-1 c4h71-3 c4h71-4
                   c4h6 c4h7o c4h8o1-2 ch2ch2coch3
                   ch3chcoch3 ch3choococh3
                   ch2choohcoch3 c3h6cho-3 c2h5chco
                   ic3h5cho ic3h5co ic3h6co tc3h6oh
                   ic3h5oh c4h4 c4h3-i c4h3-n c4h612
                   c4h2 c4h5-i c4h5-n ch3chchco
                   ch2chchcho c4h5-2 c4h6-2 ch3chchcho
                   h2c4o """, 
     reactions = "all", 
     initial_state = state(temperature = 300.0, pressure = 101325.0)   )

#---------------------------------------------------------------------------
#  Species data
#---------------------------------------------------------------------------

species(name = "dmf25",
    atoms = "C:6, H:8, O:1", 
    thermo = (
       NASA(   [300.0, 1401.0], [-1.902383940e+00, 6.390590920e-02,
                -4.468365320e-05, 1.586912820e-08,
                -2.241053870e-12,
                -1.700688440e+04, 3.435038780e+01]  ),
       NASA(   [1401.0, 5000.0], [1.620404700e+01, 2.131138110e-02,
                -7.052303390e-06, 1.071302330e-09,
                -6.123459900e-14,
                -2.316627800e+04,
                -6.262152160e+01]  )
                ),
    transport = gas_transport(
                geom = "nonlinear",
                diam = 5.300000000000001, 
                well_depth = 501.0, 
                polar = 0.0, 
                rot_relax = 1.0)
       )

species(name = "dmf24",
    atoms = "C:6, H:8, O:1", 
    thermo = (
       NASA(   [300.0, 1400.0], [-1.749356520e+00, 6.327008160e-02,
                -4.382438120e-05, 1.538078790e-08,
                -2.141158520e-12,
                -1.577274460e+04, 3.433857610e+01]  ),
       NASA(   [1400.0, 5000.0], [1.619923840e+01, 2.130228580e-02,
                -7.047012180e-06, 1.070308990e-09,
                -6.117169120e-14,
                -2.190492070e+04,
                -6.188033760e+01]  )
                ),
    transport = gas_transport(
                geom = "nonlinear",
                diam = 5.300000000000001, 
                well_depth = 501.0, 
                polar = 0.0, 
                rot_relax = 1.0)
       )

species(name = "cc31m2cho",
    atoms = "C:6, H:8, O:1", 
    thermo = (
       NASA(   [300.0, 1383.0], [7.689639340e-01, 5.655870380e-02,
                -3.390609060e-05, 9.022523470e-09,
                -7.106490410e-13, 4.685392060e+03,
                2.638478700e+01]  ),
       NASA(   [1383.0, 5000.0], [1.794475180e+01, 2.006932890e-02,
                -6.681300480e-06, 1.019762500e-09,
                -5.850316770e-14,
                -1.518385970e+03,
                -6.694217870e+01]  )
                ),
    transport = gas_transport(
                geom = "nonlinear",
                diam = 6.098, 
                well_depth = 380.96, 
                polar = 0.0, 
                rot_relax = 1.0)
       )

species(name = "h34de2o",
    atoms = "C:6, H:8, O:1", 
    thermo = (
       NASA(   [300.0, 1676.0], [1.401610320e+00, 5.419949180e-02,
                -3.111135970e-05, 8.005538860e-09,
                -6.657131600e-13,
                -2.869489210e+03, 2.402255400e+01]  ),
       NASA(   [1676.0, 5000.0], [1.588810380e+01, 2.299051670e-02,
                -8.014045830e-06, 1.266973370e-09,
                -7.462458660e-14,
                -7.833336530e+03,
                -5.425249470e+01]  )
                ),
    transport = gas_transport(
                geom = "nonlinear",
                diam = 6.086, 
                well_depth = 388.603, 
                polar = 0.0, 
                rot_relax = 1.0)
       )

species(name = "h35de2o",
    atoms = "C:6, H:8, O:1", 
    thermo = (
       NASA(   [300.0, 1388.0], [-7.885214110e-01, 6.307818820e-02,
                -4.214528750e-05, 1.350287270e-08,
                -1.609757790e-12,
                -7.355470150e+03, 3.258645610e+01]  ),
       NASA(   [1388.0, 5000.0], [1.851831580e+01, 1.976805030e-02,
                -6.617965750e-06, 1.014068460e-09,
                -5.834028630e-14,
                -1.411131560e+04,
                -7.152615050e+01]  )
                ),
    transport = gas_transport(
                geom = "nonlinear",
                diam = 6.172, 
                well_depth = 375.653, 
                polar = 0.0, 
                rot_relax = 1.0)
       )

species(name = "p23de1o2m",
    atoms = "C:6, H:8, O:1", 
    thermo = (
       NASA(   [300.0, 2009.0], [3.223148460e+00, 4.822853780e-02,
                -2.600705200e-05, 6.243653740e-09,
                -4.532348250e-13,
                -8.235302160e+02, 1.566562430e+01]  ),
       NASA(   [2009.0, 5000.0], [1.510491960e+01, 2.307335880e-02,
                -7.905513330e-06, 1.234981130e-09,
                -7.212726300e-14,
                -4.951908270e+03,
                -4.870726180e+01]  )
                ),
    transport = gas_transport(
                geom = "nonlinear",
                diam = 5.56, 
                well_depth = 336.119, 
                polar = 0.0, 
                rot_relax = 1.0)
       )

species(name = "dmf34",
    atoms = "C:6, H:8, O:1", 
    thermo = (
       NASA(   [300.0, 1399.0], [-1.656876160e+00, 6.271056630e-02,
                -4.296467790e-05, 1.485654220e-08,
                -2.028441430e-12,
                -1.457421040e+04, 3.324009790e+01]  ),
       NASA(   [1399.0, 5000.0], [1.615698610e+01, 2.133831910e-02,
                -7.059635200e-06, 1.072311590e-09,
                -6.128996660e-14,
                -2.068754880e+04,
                -6.235464540e+01]  )
                ),
    transport = gas_transport(
                geom = "nonlinear",
                diam = 5.300000000000001, 
                well_depth = 501.0, 
                polar = 0.0, 
                rot_relax = 1.0)
       )

species(name = "dmf25acar",
    atoms = "C:6, H:8, O:1", 
    thermo = (
       NASA(   [300.0, 1402.0], [-2.041355530e+00, 6.626598730e-02,
                -4.855477380e-05, 1.824979180e-08,
                -2.752811510e-12, 1.355828280e+04,
                3.690562000e+01]  ),
       NASA(   [1402.0, 5000.0], [1.670922300e+01, 2.089704810e-02,
                -6.912593480e-06, 1.049825830e-09,
                -5.999738550e-14, 7.302645330e+03,
                -6.307460280e+01]  )
                ),
    transport = gas_transport(
                geom = "nonlinear",
                diam = 5.300000000000001, 
                well_depth = 501.0, 
                polar = 0.0, 
                rot_relax = 1.0)
       )

species(name = "dmf25bcar",
    atoms = "C:6, H:8, O:1", 
    thermo = (
       NASA(   [300.0, 1402.0], [-1.486712360e+00, 6.399180500e-02,
                -4.537369600e-05, 1.637071500e-08,
                -2.353304160e-12, 1.301647230e+04,
                3.399599460e+01]  ),
       NASA(   [1402.0, 5000.0], [1.668273250e+01, 2.090487670e-02,
                -6.912519410e-06, 1.049560430e-09,
                -5.997271200e-14, 6.872902290e+03,
                -6.318661730e+01]  )
                ),
    transport = gas_transport(
                geom = "nonlinear",
                diam = 5.300000000000001, 
                well_depth = 501.0, 
                polar = 0.0, 
                rot_relax = 1.0)
       )

species(name = "dmf24bcar",
    atoms = "C:6, H:8, O:1", 
    thermo = (
       NASA(   [300.0, 1402.0], [-1.964662070e+00, 6.765523870e-02,
                -5.134507880e-05, 2.014229140e-08,
                -3.185437750e-12, 1.565885170e+04,
                3.601162010e+01]  ),
       NASA(   [1402.0, 5000.0], [1.703773250e+01, 2.060913770e-02,
                -6.811250490e-06, 1.033789850e-09,
                -5.905467320e-14, 9.415986480e+03,
                -6.494932940e+01]  )
                ),
    transport = gas_transport(
                geom = "nonlinear",
                diam = 5.300000000000001, 
                well_depth = 501.0, 
                polar = 0.0, 
                rot_relax = 1.0)
       )

species(name = "dmf34acar",
    atoms = "C:6, H:8, O:1", 
    thermo = (
       NASA(   [300.0, 1403.0], [-2.105401820e+00, 6.879077660e-02,
                -5.325345440e-05, 2.136626790e-08,
                -3.457396350e-12, 1.501065940e+04,
                3.624752010e+01]  ),
       NASA(   [1403.0, 5000.0], [1.712000510e+01, 2.053902290e-02,
                -6.786418870e-06, 1.029801630e-09,
                -5.881654800e-14, 8.755425190e+03,
                -6.567385060e+01]  )
                ),
    transport = gas_transport(
                geom = "nonlinear",
                diam = 5.300000000000001, 
                well_depth = 501.0, 
                polar = 0.0, 
                rot_relax = 1.0)
       )

species(name = "dmf25opb1",
    atoms = "C:6, H:8, O:1", 
    thermo = (
       NASA(   [300.0, 1477.0], [4.339365010e+00, 4.320595770e-02,
                -1.543638200e-05,
                -1.760427400e-09, 1.551110910e-12,
                2.707092450e+04, 1.196041690e+01]  ),
       NASA(   [1477.0, 5000.0], [1.814005890e+01, 2.011483240e-02,
                -6.742340440e-06, 1.033906550e-09,
                -5.951032390e-14, 2.147618680e+04,
                -6.521636980e+01]  )
                ),
    transport = gas_transport(
                geom = "nonlinear",
                diam = 5.300000000000001, 
                well_depth = 501.0, 
                polar = 0.0, 
                rot_relax = 1.0)
       )

species(name = "dmf25opb2",
    atoms = "C:6, H:8, O:1", 
    thermo = (
       NASA(   [300.0, 1398.0], [2.255720850e-02, 6.115501860e-02,
                -4.338363570e-05, 1.587705860e-08,
                -2.344514850e-12, 2.309367450e+04,
                2.978201850e+01]  ),
       NASA(   [1398.0, 5000.0], [1.707934310e+01, 2.058209540e-02,
                -6.803326170e-06, 1.032664060e-09,
                -5.899249600e-14, 1.731498720e+04,
                -6.144517320e+01]  )
                ),
    transport = gas_transport(
                geom = "nonlinear",
                diam = 5.300000000000001, 
                well_depth = 501.0, 
                polar = 0.0, 
                rot_relax = 1.0)
       )

species(name = "p2e4car",
    atoms = "C:5, H:8", 
    thermo = (
       NASA(   [300.0, 1394.0], [-7.287333160e-01, 5.203326760e-02,
                -3.762413180e-05, 1.475310650e-08,
                -2.404576700e-12, 4.018176730e+04,
                3.115127360e+01]  ),
       NASA(   [1394.0, 5000.0], [1.300542210e+01, 1.890156970e-02,
                -6.381950850e-06, 1.061878380e-09,
                -6.663947070e-14, 3.548108200e+04,
                -4.229748420e+01]  )
                ),
    transport = gas_transport(
                geom = "nonlinear",
                diam = 5.612, 
                well_depth = 339.106, 
                polar = 0.0, 
                rot_relax = 1.0)
       )

species(name = "dmf252j",
    atoms = "C:6, H:7, O:1", 
    thermo = (
       NASA(   [300.0, 1403.0], [-2.895297220e+00, 7.082148920e-02,
                -5.930911770e-05, 2.562168310e-08,
                -4.436477420e-12,
                -4.502744870e+02, 3.866494010e+01]  ),
       NASA(   [1403.0, 5000.0], [1.697539600e+01, 1.867657560e-02,
                -6.259615150e-06, 9.589495310e-10,
                -5.513135280e-14,
                -6.716540820e+03,
                -6.591818240e+01]  )
                ),
    transport = gas_transport(
                geom = "nonlinear",
                diam = 5.300000000000001, 
                well_depth = 501.0, 
                polar = 0.0, 
                rot_relax = 1.0)
       )

species(name = "dmf242j",
    atoms = "C:6, H:7, O:1", 
    thermo = (
       NASA(   [300.0, 1403.0], [-3.229395330e+00, 7.172002090e-02,
                -6.034962480e-05, 2.617388480e-08,
                -4.546255640e-12, 1.127367120e+03,
                4.044283900e+01]  ),
       NASA(   [1403.0, 5000.0], [1.690906980e+01, 1.872624950e-02,
                -6.275619860e-06, 9.613563720e-10,
                -5.526860520e-14,
                -5.208889370e+03,
                -6.549811570e+01]  )
                ),
    transport = gas_transport(
                geom = "nonlinear",
                diam = 5.300000000000001, 
                well_depth = 501.0, 
                polar = 0.0, 
                rot_relax = 1.0)
       )

species(name = "dmf244j",
    atoms = "C:6, H:7, O:1", 
    thermo = (
       NASA(   [300.0, 1403.0], [-2.847973170e+00, 7.058476660e-02,
                -5.907781270e-05, 2.554671700e-08,
                -4.431462100e-12, 3.016811390e+03,
                3.800331310e+01]  ),
       NASA(   [1403.0, 5000.0], [1.690962170e+01, 1.873280630e-02,
                -6.279026180e-06, 9.619755830e-10,
                -5.530722310e-14,
                -3.218208700e+03,
                -6.599128250e+01]  )
                ),
    transport = gas_transport(
                geom = "nonlinear",
                diam = 5.300000000000001, 
                well_depth = 501.0, 
                polar = 0.0, 
                rot_relax = 1.0)
       )

species(name = "dmf25ch2",
    atoms = "C:6, H:6, O:1", 
    thermo = (
       NASA(   [300.0, 1402.0], [-4.864890430e+00, 7.720551020e-02,
                -7.139914530e-05, 3.350441670e-08,
                -6.205346340e-12, 3.266872060e+03,
                4.535959000e+01]  ),
       NASA(   [1402.0, 5000.0], [1.677876640e+01, 1.689884640e-02,
                -5.773501910e-06, 8.958241600e-10,
                -5.195700010e-14,
                -3.260895710e+03,
                -6.739950950e+01]  )
                ),
    transport = gas_transport(
                geom = "nonlinear",
                diam = 5.300000000000001, 
                well_depth = 501.0, 
                polar = 0.0, 
                rot_relax = 1.0)
       )

species(name = "h45de2o3j",
    atoms = "C:6, H:7, O:1", 
    thermo = (
       NASA(   [300.0, 1398.0], [-3.168255690e-01, 6.371723070e-02,
                -5.179056810e-05, 2.212030810e-08,
                -3.834306200e-12, 1.423571780e+04,
                3.012575010e+01]  ),
       NASA(   [1398.0, 5000.0], [1.714972940e+01, 1.856871400e-02,
                -6.229957440e-06, 9.550001170e-10,
                -5.492557250e-14, 8.617192500e+03,
                -6.211793930e+01]  )
                ),
    transport = gas_transport(
                geom = "nonlinear",
                diam = 6.103, 
                well_depth = 372.242, 
                polar = 0.0, 
                rot_relax = 1.0)
       )

species(name = "h35de2o1j",
    atoms = "C:6, H:7, O:1", 
    thermo = (
       NASA(   [300.0, 1399.0], [-1.957994460e+00, 7.209183970e-02,
                -6.179988640e-05, 2.695163630e-08,
                -4.679840900e-12, 1.483470710e+04,
                3.681978430e+01]  ),
       NASA(   [1399.0, 5000.0], [1.897306090e+01, 1.700599440e-02,
                -5.696011540e-06, 8.728155990e-10,
                -5.020636700e-14, 8.265255780e+03,
                -7.326403010e+01]  )
                ),
    transport = gas_transport(
                geom = "nonlinear",
                diam = 6.103, 
                well_depth = 372.242, 
                polar = 0.0, 
                rot_relax = 1.0)
       )

species(name = "che21o4j",
    atoms = "C:6, H:7, O:1", 
    thermo = (
       NASA(   [300.0, 1398.0], [-3.973051910e+00, 7.107069770e-02,
                -5.589528690e-05, 2.253446300e-08,
                -3.672458360e-12,
                -1.020000320e+03, 4.346788840e+01]  ),
       NASA(   [1398.0, 5000.0], [1.688529570e+01, 1.953157620e-02,
                -6.721781960e-06, 1.048132670e-09,
                -6.100248960e-14,
                -7.939898470e+03,
                -6.748560510e+01]  )
                ),
    transport = gas_transport(
                geom = "nonlinear",
                diam = 5.500000000000001, 
                well_depth = 450.0, 
                polar = 0.0, 
                rot_relax = 1.0)
       )

species(name = "cpropc3h4-a",
    atoms = "C:6, H:7, O:1", 
    thermo = (
       NASA(   [300.0, 1406.0], [-2.078956850e+00, 7.413937940e-02,
                -6.773571930e-05, 3.178583090e-08,
                -5.897774620e-12, 2.282524300e+04,
                3.679490540e+01]  ),
       NASA(   [1406.0, 5000.0], [1.784142960e+01, 1.795650850e-02,
                -6.009818760e-06, 9.194370630e-10,
                -5.279803970e-14, 1.689422840e+04,
                -6.672933120e+01]  )
                ),
    transport = gas_transport(
                geom = "nonlinear",
                diam = 6.073, 
                well_depth = 407.774, 
                polar = 0.0, 
                rot_relax = 1.0)
       )

species(name = "che21o5j",
    atoms = "C:6, H:7, O:1", 
    thermo = (
       NASA(   [300.0, 1396.0], [-3.604766680e+00, 7.144327910e-02,
                -5.762431370e-05, 2.400612750e-08,
                -4.052914490e-12, 7.069504170e+03,
                4.252084780e+01]  ),
       NASA(   [1396.0, 5000.0], [1.711257320e+01, 1.936416330e-02,
                -6.669319560e-06, 1.040463580e-09,
                -6.057600710e-14, 2.577951900e+02,
                -6.741372580e+01]  )
                ),
    transport = gas_transport(
                geom = "nonlinear",
                diam = 5.500000000000001, 
                well_depth = 450.0, 
                polar = 0.0, 
                rot_relax = 1.0)
       )

species(name = "h25de1o1j",
    atoms = "C:6, H:7, O:1", 
    thermo = (
       NASA(   [300.0, 1399.0], [6.390623610e-01, 6.247438010e-02,
                -5.280178220e-05, 2.351732590e-08,
                -4.215127330e-12, 1.496852910e+04,
                2.729275850e+01]  ),
       NASA(   [1399.0, 5000.0], [1.719908250e+01, 1.782900020e-02,
                -5.831052900e-06, 8.785540460e-10,
                -4.992420840e-14, 9.836396420e+03,
                -5.949290940e+01]  )
                ),
    transport = gas_transport(
                geom = "nonlinear",
                diam = 6.06, 
                well_depth = 358.919, 
                polar = 0.0, 
                rot_relax = 1.0)
       )

species(name = "h13de1o6j",
    atoms = "C:6, H:7, O:1", 
    thermo = (
       NASA(   [300.0, 1396.0], [4.951751300e-01, 6.057894100e-02,
                -4.730556380e-05, 1.917738100e-08,
                -3.140538350e-12, 1.918201020e+04,
                2.863067150e+01]  ),
       NASA(   [1396.0, 5000.0], [1.754048630e+01, 1.772319080e-02,
                -5.837913980e-06, 8.843438260e-10,
                -5.045854340e-14, 1.363292520e+04,
                -6.172537010e+01]  )
                ),
    transport = gas_transport(
                geom = "nonlinear",
                diam = 5.51, 
                well_depth = 325.23, 
                polar = 0.0, 
                rot_relax = 1.0)
       )

species(name = "chde241o",
    atoms = "C:6, H:6, O:1", 
    thermo = (
       NASA(   [300.0, 1391.0], [-2.119376990e+00, 6.306090420e-02,
                -5.014233040e-05, 2.070032060e-08,
                -3.483476270e-12,
                -3.981619670e+03, 3.444065570e+01]  ),
       NASA(   [1391.0, 5000.0], [1.615056860e+01, 1.764985630e-02,
                -6.113490030e-06, 9.619557580e-10,
                -5.635558880e-14,
                -1.005810440e+04,
                -6.272118390e+01]  )
                ),
    transport = gas_transport(
                geom = "nonlinear",
                diam = 5.500000000000001, 
                well_depth = 450.0, 
                polar = 0.0, 
                rot_relax = 1.0)
       )

species(name = "chde251o",
    atoms = "C:6, H:6, O:1", 
    thermo = (
       NASA(   [300.0, 1397.0], [-4.322442640e+00, 6.965975630e-02,
                -5.766093250e-05, 2.449424190e-08,
                -4.191328150e-12,
                -4.263390820e+03, 4.381259900e+01]  ),
       NASA(   [1397.0, 5000.0], [1.600568380e+01, 1.777608920e-02,
                -6.125985530e-06, 9.561250410e-10,
                -5.568453180e-14,
                -1.085656380e+04,
                -6.375843090e+01]  )
                ),
    transport = gas_transport(
                geom = "nonlinear",
                diam = 5.500000000000001, 
                well_depth = 450.0, 
                polar = 0.0, 
                rot_relax = 1.0)
       )

species(name = "p14de1j",
    atoms = "C:5, H:7", 
    thermo = (
       NASA(   [300.0, 1397.0], [-1.431637430e+00, 5.445810810e-02,
                -4.278178630e-05, 1.787234350e-08,
                -3.068409260e-12, 4.107818500e+04,
                3.281935750e+01]  ),
       NASA(   [1397.0, 5000.0], [1.334524530e+01, 1.717058500e-02,
                -5.843901760e-06, 9.042225330e-10,
                -5.233610760e-14, 3.619841860e+04,
                -4.560080090e+01]  )
                ),
    transport = gas_transport(
                geom = "nonlinear",
                diam = 5.543, 
                well_depth = 335.116, 
                polar = 0.0, 
                rot_relax = 1.0)
       )

species(name = "dmf252h3j",
    atoms = "C:6, H:9, O:1", 
    thermo = (
       NASA(   [298.15, 1000.0], [-1.688282830e+00, 6.659874520e-02,
                -4.119149900e-05, 8.244036670e-09,
                1.205372280e-12, -6.387041470e+03,
                3.495117860e+01]  ),
       NASA(   [1000.0, 2000.0], [6.390286880e+00, 4.398011400e-02,
                -2.180702360e-05, 5.016700660e-09,
                -4.117056180e-13,
                -8.487537800e+03,
                -6.447162320e+00]  )
                ),
    transport = gas_transport(
                geom = "nonlinear",
                diam = 5.300000000000001, 
                well_depth = 501.0, 
                polar = 0.0, 
                rot_relax = 1.0)
       )

species(name = "h4e2o3j",
    atoms = "C:6, H:9, O:1", 
    thermo = (
       NASA(   [298.15, 1000.0], [1.093927520e+00, 5.255048830e-02,
                -1.794879870e-05,
                -8.459617010e-09, 5.683316740e-12,
                -4.653089110e+03, 2.568949890e+01]  ),
       NASA(   [1000.0, 2000.0], [6.148981810e+00, 4.339708690e-02,
                -2.081892020e-05, 4.520613100e-09,
                -3.284447270e-13,
                -6.217440750e+03,
                -1.464919910e+00]  )
                ),
    transport = gas_transport(
                geom = "nonlinear",
                diam = 6.226, 
                well_depth = 366.208, 
                polar = 0.0, 
                rot_relax = 1.0)
       )

species(name = "dmf253h2j",
    atoms = "C:6, H:9, O:1", 
    thermo = (
       NASA(   [298.0, 1000.0], [1.614187900e-01, 5.520027100e-02,
                -1.977970700e-05,
                -8.307725700e-09, 5.846789100e-12,
                -2.630068300e+03, 2.690652700e+01]  ),
       NASA(   [1000.0, 2000.0], [5.395608700e+00, 4.578584300e-02,
                -2.294156400e-05, 5.322511000e-09,
                -4.413530700e-13,
                -4.253022900e+03,
                -1.225996500e+00]  )
                ),
    transport = gas_transport(
                geom = "nonlinear",
                diam = 5.300000000000001, 
                well_depth = 501.0, 
                polar = 0.0, 
                rot_relax = 1.0)
       )

species(name = "h4e2o5j",
    atoms = "C:6, H:9, O:1", 
    thermo = (
       NASA(   [300.0, 1387.0], [1.556726440e+00, 5.524449480e-02,
                -3.282661970e-05, 9.789331580e-09,
                -1.174992480e-12, 6.712493860e+03,
                2.606432370e+01]  ),
       NASA(   [1387.0, 5000.0], [1.674242410e+01, 2.339136340e-02,
                -8.031469650e-06, 1.250041680e-09,
                -7.264869300e-14, 1.004641550e+03,
                -5.689730910e+01]  )
                ),
    transport = gas_transport(
                geom = "nonlinear",
                diam = 6.336, 
                well_depth = 349.869, 
                polar = 0.0, 
                rot_relax = 1.0)
       )

species(name = "dmf253j",
    atoms = "C:6, H:7, O:1", 
    thermo = (
       NASA(   [298.15, 1000.0], [3.152902900e-01, 4.880115800e-02,
                -1.774577100e-05,
                -7.757645300e-09, 5.463826900e-12,
                1.681280300e+04, 2.679142500e+01]  ),
       NASA(   [1000.0, 2000.0], [5.482040400e+00, 3.914692800e-02,
                -1.978358400e-05, 4.613668000e-09,
                -3.821943000e-13, 1.522881400e+04,
                -8.883500000e-01]  )
                ),
    transport = gas_transport(
                geom = "nonlinear",
                diam = 5.300000000000001, 
                well_depth = 501.0, 
                polar = 0.0, 
                rot_relax = 1.0)
       )

species(name = "h34de2o4j",
    atoms = "C:6, H:7, O:1", 
    thermo = (
       NASA(   [298.0, 1000.0], [3.315607000e+00, 4.509680000e-02,
                -1.954586900e-05,
                -2.245137100e-09, 3.029184700e-12,
                1.330600600e+04, 1.568873200e+01]  ),
       NASA(   [1000.0, 2000.0], [6.339222600e+00, 3.958690800e-02,
                -2.115788900e-05, 5.414113500e-09,
                -5.317707200e-13, 1.237205400e+04,
                -5.446082500e-01]  )
                ),
    transport = gas_transport(
                geom = "nonlinear",
                diam = 6.066000000000001, 
                well_depth = 352.843, 
                polar = 0.0, 
                rot_relax = 1.0)
       )

species(name = "p1e3y1o",
    atoms = "C:5, H:4, O:1", 
    thermo = (
       NASA(   [298.0, 1000.0], [3.298083900e+00, 3.468459500e-02,
                -2.514412500e-05, 1.015529300e-08,
                -1.797062100e-12, 1.894920000e+04,
                1.309315300e+01]  ),
       NASA(   [1000.0, 2000.0], [5.235295700e+00, 2.754827700e-02,
                -1.535844100e-05, 4.244032600e-09,
                -4.723792200e-13, 1.853113100e+04,
                3.594094200e+00]  )
                ),
    transport = gas_transport(
                geom = "nonlinear",
                diam = 4.993, 
                well_depth = 348.645, 
                polar = 0.0, 
                rot_relax = 1.0)
       )

species(name = "dmf252oj",
    atoms = "C:6, H:7, O:2", 
    thermo = (
       NASA(   [300.0, 1398.0], [-1.769777850e+00, 7.090317020e-02,
                -5.616702430e-05, 2.289265800e-08,
                -3.778098070e-12,
                -7.012458440e+03, 3.609689320e+01]  ),
       NASA(   [1398.0, 5000.0], [1.890753850e+01, 1.952398990e-02,
                -6.721199960e-06, 1.048216840e-09,
                -6.101331360e-14,
                -1.385442710e+04,
                -7.380985350e+01]  )
                ),
    transport = gas_transport(
                geom = "nonlinear",
                diam = 5.300000000000001, 