#---------------------------------------------------------------------------
#  CTI file converted from solution object
#---------------------------------------------------------------------------

units(length = "cm", time = "s", quantity = "mol", act_energy = "cal/mol")

ideal_gas(name = "reduced_69", 
     elements = "H C O N", 
     species = """ H H2 C2H3 C3H6O1-2 O C2H2 O2 OH CH3CHO H2O CH3CO N2
                   CH2CHO HO2 CH2CO H2O2 HCCO HCCOH CO
                   CH3CHCO CO2 C3H8 CH2O IC3H7 HCO
                   C2H5OH NC3H7 C2H5O C3H6 PC2H4OH
                   C3H5-A HOCHO SC2H4OH C2H5O2H C2H5O2
                   C3H4-A C3H3 EP1D HOCH2O C3H2 CH3OH
                   C2H3O1-2 C3H5O CH2OH MP1DMJ CH3O
                   C2H3COOH CH3O2H C2H5COOH CH3O2 CH4
                   CH3CHCOOH CH3 C2H3CHO CH2COOH CH2
                   C2H3CO HOCO CH2(S) C C2H5CO CH
                   NC3H7O2 CH2CHCO C2H6 IC3H7O2 C2H5
                   NC3H7O C2H4 """, 
     reactions = "all", 
     initial_state = state(temperature = 300.0, pressure = 101324.99999999997)   )

#---------------------------------------------------------------------------
#  Species data
#---------------------------------------------------------------------------

species(name = "H",
    atoms = "H:1", 
    thermo = (
       NASA(   [300.0, 1000.0], [2.500000000e+00, 0.000000000e+00,
                0.000000000e+00, 0.000000000e+00,
                0.000000000e+00, 2.547163000e+04,
                -4.601176000e-01]  ),
       NASA(   [1000.0, 5000.0], [2.500000000e+00, 0.000000000e+00,
                0.000000000e+00, 0.000000000e+00,
                0.000000000e+00, 2.547163000e+04,
                -4.601176000e-01]  )
                ),
       )

species(name = "H2",
    atoms = "H:2", 
    thermo = (
       NASA(   [300.0, 1000.0], [3.298124000e+00, 8.249442000e-04,
                -8.143015000e-07,
                -9.475434000e-11, 4.134872000e-13,
                -1.012521000e+03,
                -3.294094000e+00]  ),
       NASA(   [1000.0, 5000.0], [2.991423000e+00, 7.000644000e-04,
                -5.633829000e-08,
                -9.231578000e-12, 1.582752000e-15,
                -8.350340000e+02,
                -1.355110000e+00]  )
                ),
       )

species(name = "C2H3",
    atoms = "C:2, H:3", 
    thermo = (
       NASA(   [300.0, 1395.0], [1.253297240e+00, 1.562583700e-02,
                -1.078038790e-05, 4.180546340e-09,
                -7.013603620e-13, 3.507347730e+04,
                1.713416610e+01]  ),
       NASA(   [1395.0, 5000.0], [5.073312480e+00, 6.583162780e-03,
                -2.237629240e-06, 3.458033790e-10,
                -1.999404900e-14, 3.372347480e+04,
                -3.397927120e+00]  )
                ),
       )

species(name = "C3H6O1-2",
    atoms = "C:3, H:6, O:1", 
    thermo = (
       NASA(   [300.0, 1379.0], [-1.219881530e+00, 4.285787720e-02,
                -3.175302490e-05, 1.217637360e-08,
                -1.941543030e-12,
                -1.229537610e+04, 2.884678260e+01]  ),
       NASA(   [1379.0, 5000.0], [1.198252890e+01, 1.239646960e-02,
                -4.391138130e-06, 6.979111820e-10,
                -4.115851270e-14,
                -1.697391890e+04,
                -4.228940350e+01]  )
                ),
       )

species(name = "O",
    atoms = "O:1", 
    thermo = (
       NASA(   [300.0, 1000.0], [2.946429000e+00, -1.638166000e-03,
                2.421032000e-06, -1.602843000e-09,
                3.890696000e-13, 2.914764000e+04,
                2.963995000e+00]  ),
       NASA(   [1000.0, 5000.0], [2.542060000e+00, -2.755062000e-05,
                -3.102803000e-09, 4.551067000e-12,
                -4.368052000e-16, 2.923080000e+04,
                4.920308000e+00]  )
                ),
       )

species(name = "C2H2",
    atoms = "C:2, H:2", 
    thermo = (
       NASA(   [300.0, 1407.0], [2.067426670e+00, 1.465685060e-02,
                -1.529470630e-05, 8.309657610e-09,
                -1.729321750e-12, 2.595785890e+04,
                8.627586720e+00]  ),
       NASA(   [1407.0, 5000.0], [4.982651640e+00, 4.259929300e-03,
                -1.374835230e-06, 2.047179640e-10,
                -1.151917400e-14, 2.526971180e+04,
                -5.813213850e+00]  )
                ),
       )

species(name = "O2",
    atoms = "O:2", 
    thermo = (
       NASA(   [300.0, 1000.0], [3.212936000e+00, 1.127486000e-03,
                -5.756150000e-07, 1.313877000e-09,
                -8.768554000e-13,
                -1.005249000e+03, 6.034738000e+00]  ),
       NASA(   [1000.0, 5000.0], [3.697578000e+00, 6.135197000e-04,
                -1.258842000e-07, 1.775281000e-11,
                -1.136435000e-15,
                -1.233930000e+03, 3.189166000e+00]  )
                ),
       )

species(name = "OH",
    atoms = "H:1, O:1", 
    thermo = (
       NASA(   [300.0, 1710.0], [3.418962260e+00, 3.192558010e-04,
                -3.082927170e-07, 3.644074940e-10,
                -1.001954790e-13, 3.452644480e+03,
                2.544333720e+00]  ),
       NASA(   [1710.0, 5000.0], [2.853760400e+00, 1.029943340e-03,
                -2.326664770e-07, 1.937507040e-11,
                -3.157598470e-16, 3.699497200e+03,
                5.787568250e+00]  )
                ),
       )

species(name = "CH3CHO",
    atoms = "C:2, H:4, O:1", 
    thermo = (
       NASA(   [300.0, 1377.0], [1.770600350e+00, 1.844751610e-02,
                -7.241381620e-06, 2.343645610e-10,
                3.355438910e-13, -2.180788500e+04,
                1.650234370e+01]  ),
       NASA(   [1377.0, 5000.0], [6.985188660e+00, 9.678977870e-03,
                -3.318419540e-06, 5.160259010e-10,
                -2.997259030e-14,
                -2.398072790e+04,
                -1.274848520e+01]  )
                ),
       )

species(name = "H2O",
    atoms = "H:2, O:1", 
    thermo = (
       NASA(   [300.0, 1000.0], [3.386842000e+00, 3.474982000e-03,
                -6.354696000e-06, 6.968581000e-09,
                -2.506588000e-12,
                -3.020811000e+04, 2.590233000e+00]  ),
       NASA(   [1000.0, 5000.0], [2.672146000e+00, 3.056293000e-03,
                -8.730260000e-07, 1.200996000e-10,
                -6.391618000e-15,
                -2.989921000e+04, 6.862817000e+00]  )
                ),
       )

species(name = "CH3CO",
    atoms = "C:2, H:3, O:1", 
    thermo = (
       NASA(   [300.0, 1371.0], [2.528841500e+00, 1.371521730e-02,
                -4.286074760e-06,
                -7.716842780e-10, 4.838363800e-13,
                -3.025465320e+03, 1.403403150e+01]  ),
       NASA(   [1371.0, 5000.0], [6.566824660e+00, 7.553086690e-03,
                -2.599667840e-06, 4.053349940e-10,
                -2.358761640e-14,
                -4.766904010e+03,
                -8.833019650e+00]  )
                ),
       )

species(name = "N2",
    atoms = "N:2", 
    thermo = (
       NASA(   [300.0, 1000.0], [3.298677000e+00, 1.408240000e-03,
                -3.963222000e-06, 5.641515000e-09,
                -2.444855000e-12,
                -1.020900000e+03, 3.950372000e+00]  ),
       NASA(   [1000.0, 5000.0], [2.926640000e+00, 1.487977000e-03,
                -5.684761000e-07, 1.009704000e-10,
                -6.753351000e-15,
                -9.227977000e+02, 5.980528000e+00]  )
                ),
       )

species(name = "CH2CHO",
    atoms = "C:2, H:3, O:1", 
    thermo = (
       NASA(   [300.0, 1388.0], [1.476169560e+00, 2.089741860e-02,
                -1.501235520e-05, 5.629673820e-09,
                -8.766244700e-13,
                -4.820505100e+02, 1.637564650e+01]  ),
       NASA(   [1388.0, 5000.0], [7.541457900e+00, 6.822971250e-03,
                -2.369386070e-06, 3.716335170e-10,
                -2.171600480e-14,
                -2.614372390e+03,
                -1.626027660e+01]  )
                ),
       )

species(name = "HO2",
    atoms = "H:1, O:2", 
    thermo = (
       NASA(   [200.0, 1000.0], [4.301798010e+00, -4.749120510e-03,
                2.115828910e-05, -2.427638940e-08,
                9.292251240e-12, 2.948080400e+02,
                3.716662450e+00]  ),
       NASA(   [1000.0, 3500.0], [4.017210900e+00, 2.239820130e-03,
                -6.336581500e-07, 1.142463700e-10,
                -1.079085350e-14, 1.118567130e+02,
                3.785102150e+00]  )
                ),
       )

species(name = "CH2CO",
    atoms = "C:2, H:2, O:1", 
    thermo = (
       NASA(   [300.0, 1000.0], [2.974971000e+00, 1.211871000e-02,
                -2.345046000e-06,
                -6.466685000e-09, 3.905649000e-12,
                -7.632637000e+03, 8.673553000e+00]  ),
       NASA(   [1000.0, 5000.0], [6.038817000e+00, 5.804840000e-03,
                -1.920954000e-06, 2.794485000e-10,
                -1.458868000e-14,
                -8.583402000e+03,
                -7.657581000e+00]  )
                ),
       )

species(name = "H2O2",
    atoms = "H:2, O:2", 
    thermo = (
       NASA(   [300.0, 1000.0], [3.388754000e+00, 6.569226000e-03,
                -1.485013000e-07,
                -4.625806000e-09, 2.471515000e-12,
                -1.766315000e+04, 6.785363000e+00]  ),
       NASA(   [1000.0, 5000.0], [4.573167000e+00, 4.336136000e-03,
                -1.474689000e-06, 2.348904000e-10,
                -1.431654000e-14,
                -1.800696000e+04, 5.011370000e-01]  )
                ),
       )

species(name = "HCCO",
    atoms = "C:2, H:1, O:1", 
    thermo = (
       NASA(   [300.0, 1000.0], [5.047965000e+00, 4.453478000e-03,
                2.268283000e-07, -1.482095000e-09,
                2.250742000e-13, 1.965892000e+04,
                4.818439000e-01]  ),
       NASA(   [1000.0, 4000.0], [6.758073000e+00, 2.000400000e-03,
                -2.027607000e-07,
                -1.041132000e-10, 1.965165000e-14,
                1.901513000e+04, -9.071262000e+00]  )
                ),
       )

species(name = "HCCOH",
    atoms = "C:2, H:2, O:1", 
    thermo = (
       NASA(   [300.0, 1000.0], [3.899465000e+00, 9.701075000e-03,
                -3.119309000e-07,
                -5.537732000e-09, 2.465732000e-12,
                8.701190000e+03, 4.491875000e+00]  ),
       NASA(   [1000.0, 4000.0], [7.328324000e+00, 3.336416000e-03,
                -3.024705000e-07,
                -1.781106000e-10, 3.245168000e-14,
                7.598258000e+03, -1.401214000e+01]  )
                ),
       )

species(name = "CO",
    atoms = "C:1, O:1", 
    thermo = (
       NASA(   [300.0, 1429.0], [3.190363520e+00, 8.944199720e-04,
                -3.249275630e-08,
                -1.045999670e-10, 2.419656930e-14,
                -1.428690540e+04, 5.332779140e+00]  ),
       NASA(   [1429.0, 5000.0], [3.112168900e+00, 1.159482830e-03,
                -3.384803620e-07, 4.414030980e-11,
                -2.128622280e-15,
                -1.427185390e+04, 5.717251770e+00]  )
                ),
       )

species(name = "CH3CHCO",
    atoms = "C:3, H:4, O:1", 
    thermo = (
       NASA(   [300.0, 1400.0], [1.483801190e+00, 3.222030130e-02,
                -2.702500330e-05, 1.204991640e-08,
                -2.183659310e-12,
                -1.152765400e+04, 1.715520680e+01]  ),
       NASA(   [1400.0, 5000.0], [1.002191230e+01, 9.569663000e-03,
                -3.262216440e-06, 5.052317060e-10,
                -2.925932570e-14,
                -1.424827380e+04,
                -2.778299730e+01]  )
                ),
       )

species(name = "CO2",
    atoms = "C:1, O:2", 
    thermo = (
       NASA(   [300.0, 1380.0], [2.579304900e+00, 8.246849870e-03,
                -6.427160470e-06, 2.546370240e-09,
                -4.120304430e-13,
                -4.841628300e+04, 8.811410410e+00]  ),
       NASA(   [1380.0, 5000.0], [5.189530180e+00, 2.060064760e-03,
                -7.335753240e-07, 1.170043740e-10,
                -6.917292150e-15,
                -4.931789530e+04,
                -5.182893030e+00]  )
                ),
       )

species(name = "C3H8",
    atoms = "C:3, H:8", 
    thermo = (
       NASA(   [300.0, 1387.0], [-3.082300870e-01, 3.653318010e-02,
                -1.976109260e-05, 5.152833440e-09,
                -5.063366490e-13,
                -1.397921980e+04, 2.404787330e+01]  ),
       NASA(   [1387.0, 5000.0], [9.314500830e+00, 1.735771540e-02,
                -5.942223860e-06, 9.229397620e-10,
                -5.355766040e-14,
                -1.772342340e+04,
                -2.892415170e+01]  )
                ),
       )

species(name = "CH2O",
    atoms = "C:1, H:2, O:1", 
    thermo = (
       NASA(   [300.0, 1486.0], [3.007541970e+00, 3.047294960e-03,
                5.251092460e-06, -5.120192810e-09,
                1.271337950e-12, -1.411883970e+04,
                8.101202330e+00]  ),
       NASA(   [1486.0, 5000.0], [4.020683940e+00, 5.099034170e-03,
                -1.764304800e-06, 2.760258790e-10,
                -1.609980420e-14,
                -1.492872580e+04, 1.065255470e+00]  )
                ),
       )

species(name = "IC3H7",
    atoms = "C:3, H:7", 
    thermo = (
       NASA(   [300.0, 1373.0], [1.634175890e+00, 2.401713720e-02,
                -4.728080670e-06,
                -3.243546030e-09, 1.235390440e-12,
                9.207528890e+03, 1.838480820e+01]  ),
       NASA(   [1373.0, 5000.0], [8.147052170e+00, 1.587271060e-02,
                -5.446115410e-06, 8.472076890e-10,
                -4.921787520e-14, 6.180733670e+03,
                -1.919808500e+01]  )
                ),
       )

species(name = "HCO",
    atoms = "C:1, H:1, O:1", 
    thermo = (
       NASA(   [300.0, 1690.0], [3.810499650e+00, 8.132698250e-04,
                3.131647010e-06, -2.394782680e-09,
                5.068945540e-13, 4.038599010e+03,
                4.948431650e+00]  ),
       NASA(   [1690.0, 5000.0], [3.441481640e+00, 3.521577190e-03,
                -1.241361180e-06, 1.973286440e-10,
                -1.165386160e-14, 3.974096840e+03,
                6.245934560e+00]  )
                ),
       )

species(name = "C2H5OH",
    atoms = "C:2, H:6, O:1", 
    thermo = (
       NASA(   [300.0, 1395.0], [1.791060940e-01, 3.090600810e-02,
                -1.935966970e-05, 6.318308590e-09,
                -8.531668750e-13,
                -2.956706050e+04, 2.447159190e+01]  ),
       NASA(   [1395.0, 5000.0], [8.317421370e+00, 1.296032940e-02,
                -4.392864970e-06, 6.777349950e-10,
                -3.914482310e-14,
                -3.252197150e+04,
                -1.965027830e+01]  )
                ),
       )

species(name = "NC3H7",
    atoms = "C:3, H:7", 
    thermo = (
       NASA(   [300.0, 1386.0], [4.743653290e-01, 3.191903670e-02,
                -1.719097800e-05, 4.459278870e-09,
                -4.366753980e-13, 1.063145650e+04,
                2.326709290e+01]  ),
       NASA(   [1386.0, 5000.0], [8.886350470e+00, 1.522732790e-02,
                -5.219058600e-06, 8.112592080e-10,
                -4.710280590e-14, 7.346715840e+03,
                -2.307277910e+01]  )
                ),
       )

species(name = "C2H5O",
    atoms = "C:2, H:5, O:1", 
    thermo = (
       NASA(   [300.0, 1393.0], [2.874290220e-01, 2.865009180e-02,
                -1.838570080e-05, 6.030961790e-09,
                -8.045626430e-13,
                -3.357173770e+03, 2.375138980e+01]  ),
       NASA(   [1393.0, 5000.0], [8.237172440e+00, 1.108858790e-02,
                -3.788083720e-06, 5.876134730e-10,
                -3.407128890e-14,
                -6.229485970e+03,
                -1.931905430e+01]  )
                ),
       )

species(name = "C3H6",
    atoms = "C:3, H:6", 
    thermo = (
       NASA(   [300.0, 1388.0], [3.946154440e-01, 2.891076620e-02,
                -1.548868080e-05, 3.888142090e-09,
                -3.378903520e-13, 1.177601320e+03,
                2.190037360e+01]  ),
       NASA(   [1388.0, 5000.0], [8.015959580e+00, 1.370236340e-02,
                -4.662497330e-06, 7.212544020e-10,
                -4.173701260e-14,
                -1.767493030e+03,
                -2.001606680e+01]  )
                ),
       )

species(name = "PC2H4OH",
    atoms = "C:2, H:5, O:1", 
    thermo = (
       NASA(   [300.0, 1396.0], [9.900234260e-01, 2.615642720e-02,
                -1.659283000e-05, 5.505251310e-09,
                -7.575206670e-13,
                -4.960322830e+03, 2.286757160e+01]  ),
       NASA(   [1396.0, 5000.0], [7.885095910e+00, 1.082877950e-02,
                -3.668296830e-06, 5.657343000e-10,
                -3.266733510e-14,
                -7.449746220e+03,
                -1.446737700e+01]  )
                ),
       )

species(name = "C3H5-A",
    atoms = "C:3, H:5", 
    thermo = (
       NASA(   [300.0, 1397.0], [-5.291319580e-01, 3.345591000e-02,
                -2.534010270e-05, 1.028657540e-08,
                -1.732583400e-12, 1.949414230e+04,
                2.461723150e+01]  ),
       NASA(   [1397.0, 5000.0], [8.458839580e+00, 1.126954830e-02,
                -3.837928640e-06, 5.940591190e-10,
                -3.439180300e-14, 1.646832890e+04,
                -2.327042660e+01]  )
                ),
       )

species(name = "HOCHO",
    atoms = "C:1, H:2, O:2", 
    thermo = (
       NASA(   [300.0, 1419.0], [1.280690210e+00, 1.528877580e-02,
                -5.641504760e-06,
                -1.229687990e-09, 8.142732330e-13,
                -4.643475240e+04, 1.831420810e+01]  ),
       NASA(   [1419.0, 5000.0], [7.671344400e+00, 4.434263730e-03,
                -1.608674360e-06, 2.597700200e-10,
                -1.548997040e-14,
                -4.897086600e+04,
                -1.730244180e+01]  )
                ),
       )

species(name = "SC2H4OH",
    atoms = "C:2, H:5, O:1", 
    thermo = (
       NASA(   [300.0, 1397.0], [1.611038520e+00, 2.635118670e-02,
                -1.829415000e-05, 6.912431600e-09,
                -1.103840570e-12,
                -8.714947250e+03, 1.801147750e+01]  ),
       NASA(   [1397.0, 5000.0], [8.349807680e+00, 1.037180680e-02,
                -3.496834810e-06, 5.375247480e-10,
                -3.096610050e-14,
                -1.105561880e+04,
                -1.813541120e+01]  )
                ),
       )

species(name = "C2H5O2H",
    atoms = "C:2, H:6, O:2", 
    thermo = (
       NASA(   [300.0, 1391.0], [1.573290110e+00, 3.523799960e-02,
                -2.532039930e-05, 9.568024760e-09,
                -1.481673750e-12,
                -2.152783680e+04, 1.904720320e+01]  ),
       NASA(   [1391.0, 5000.0], [1.123057370e+01, 1.204821200e-02,
                -3.967302010e-06, 6.007546320e-10,
                -3.426578030e-14,
                -2.479775310e+04,
                -3.256072320e+01]  )
                ),
       )

species(name = "C2H5O2",
    atoms = "C:2, H:5, O:2", 
    thermo = (
       NASA(   [300.0, 1387.0], [2.586303330e+00, 2.618363620e-02,
                -1.683061930e-05, 6.087492950e-09,
                -9.573020400e-13,
                -4.585889920e+03, 1.504862890e+01]  ),
       NASA(   [1387.0, 5000.0], [8.776413290e+00, 1.187671630e-02,
                -3.876830500e-06, 5.832107540e-10,
                -3.310067240e-14,
                -6.787487030e+03,
                -1.831199720e+01]  )
                ),
       )

species(name = "C3H4-A",
    atoms = "C:3, H:4", 
    thermo = (
       NASA(   [300.0, 1400.0], [2.539831000e+00, 1.633437000e-02,
                -1.764950000e-06,
                -4.647365000e-09, 1.729131000e-12,
                2.251243000e+04, 9.935702000e+00]  ),
       NASA(   [1400.0, 4000.0], [9.776256000e+00, 5.302138000e-03,
                -3.701118000e-07,
                -3.026386000e-10, 5.089581000e-14,
                1.954972000e+04, -3.077061000e+01]  )
                ),
       )

species(name = "C3H3",
    atoms = "C:3, H:3", 
    thermo = (
       NASA(   [300.0, 1000.0], [4.754200000e+00, 1.108028000e-02,
                2.793323000e-07, -5.479212000e-09,
                1.949629000e-12, 3.988883000e+04,
                5.854549000e-01]  ),
       NASA(   [1000.0, 4000.0], [8.831047000e+00, 4.357195000e-03,
                -4.109067000e-07,
                -2.368723000e-10, 4.376520000e-14,
                3.847420000e+04, -2.177919000e+01]  )
                ),
       )

species(name = "EP1D",
    atoms = "C:5, H:8, O:2", 
    thermo = (
       NASA(   [300.0, 1390.0], [1.687319990e-01, 6.396863460e-02,
                -4.967415760e-05, 2.060979530e-08,
                -3.554806170e-12,
                -4.376697160e+04, 2.746470890e+01]  ),
       NASA(   [1390.0, 5000.0], [1.802609440e+01, 2.010155310e-02,
                -6.974033050e-06, 1.093063690e-09,
                -6.383595530e-14,
                -4.984514080e+04,
                -6.783174440e+01]  )
                ),
       )

species(name = "HOCH2O",
    atoms = "C:1, H:3, O:2", 
    thermo = (
       NASA(   [300.0, 1452.0], [4.111831450e+00, 7.538506970e-03,
                3.773373700e-06, -5.387460050e-09,
                1.456158870e-12, -2.280230010e+04,
                7.468072540e+00]  ),
       NASA(   [1452.0, 5000.0], [6.395215150e+00, 7.436730430e-03,
                -2.504223540e-06, 3.848797120e-10,
                -2.217786890e-14,
                -2.411088400e+04,
                -6.638655830e+00]  )
                ),
       )

species(name = "C3H2",
    atoms = "C:3, H:2", 
    thermo = (
       NASA(   [150.0, 1000.0], [3.166714000e+00, 2.482572000e-02,
                -4.591637000e-05, 4.268019000e-08,
                -1.482152000e-11, 6.350421000e+04,
                8.869446000e+00]  ),
       NASA(   [1000.0, 4000.0], [7.670981000e+00, 2.748749000e-03,
                -4.370943000e-07,
                -6.455599000e-11, 1.663887000e-14,
                6.259722000e+04, -1.236890000e+01]  )
                ),
       )

species(name = "CH3OH",
    atoms = "C:1, H:4, O:1", 
    thermo = (
       NASA(   [300.0, 1985.0], [1.821768440e+00, 1.233264200e-02,
                -2.737421770e-06,
                -1.073873180e-09, 4.236448370e-13,
                -2.522222070e+04, 1.481043000e+01]  ),
       NASA(   [1985.0, 5000.0], [3.928675130e+00, 9.816260740e-03,
                -3.406154760e-06, 5.355101970e-10,
                -3.137760290e-14,
                -2.614541750e+04, 2.694644830e+00]  )
                ),
       )

species(name = "C2H3O1-2",
    atoms = "C:2, H:3, O:1", 
    thermo = (
       NASA(   [300.0, 1492.0], [-1.629651220e+00, 2.934554860e-02,
                -2.437375500e-05, 1.005223250e-08,
                -1.612590360e-12, 1.524594250e+04,
                3.227827410e+01]  ),
       NASA(   [1492.0, 5000.0], [6.884864710e+00, 6.947205010e-03,
                -2.232146980e-06, 3.321907670e-10,
                -1.871245550e-14, 1.264422000e+04,
                -1.238425700e+01]  )
                ),
       )

species(name = "C3H5O",
    atoms = "C:3, H:5, O:1", 
    thermo = (
       NASA(   [300.0, 1380.0], [1.198225820e+00, 3.055798370e-02,
                -1.806302760e-05, 4.861500330e-09,
                -4.198545620e-13, 9.582177840e+03,
                2.155662210e+01]  ),
       NASA(   [1380.0, 5000.0], [1.025517520e+01, 1.149837200e-02,
                -3.846456590e-06, 5.889103460e-10,
                -3.385579230e-14, 6.265608100e+03,
                -2.776550420e+01]  )
                ),
       )

species(name = "CH2OH",
    atoms = "C:1, H:3, O:1", 
    thermo = (
       NASA(   [300.0, 1399.0], [3.056742280e+00, 1.193356340e-02,
                -8.725013030e-06, 3.827810540e-09,
                -7.228879510e-13,
                -2.831401900e+03, 8.988781330e+00]  ),
       NASA(   [1399.0, 5000.0], [5.418759130e+00, 5.661852440e-03,
                -1.874711360e-06, 2.844419380e-10,
                -1.622997980e-14,
                -3.614755400e+03,
                -3.492779630e+00]  )
                ),
       )

species(name = "MP1DMJ",
    atoms = "C:4, H:5, O:2", 
    thermo = (
       NASA(   [300.0, 1390.0], [4.276660140e+00, 4.372630710e-02,
                -3.736152620e-05, 1.656379650e-08,
                -2.975458750e-12,
                -1.590422390e+04, 5.797385040e+00]  ),
       NASA(   [1390.0, 5000.0], [1.702308730e+01, 1.086516640e-02,
                -3.811139100e-06, 6.017889920e-10,
                -3.532934140e-14,
                -2.006538500e+04,
                -6.163821960e+01]  )
                ),
       )

species(name = "CH3O",
    atoms = "C:1, H:3, O:1", 
    thermo = (
       NASA(   [300.0, 1381.0], [1.537676700e+00, 1.098282510e-02,
                -2.350508020e-06,
                -1.392663320e-09, 5.591244290e-13,
                1.069598860e+03, 1.559392050e+01]  ),
       NASA(   [1381.0, 5000.0], [4.494054050e+00, 7.097910270e-03,
                -2.421058180e-06, 3.751126360e-10,
                -2.173012950e-14,
                -2.705742080e+02,
                -1.373812960e+00]  )
                ),
       )

species(name = "C2H3COOH",
    atoms = "C:3, H:4, O:2", 
    thermo = (
       NASA(   [300.0, 1394.0], [-3.461281270e-02, 4.249021510e-02,
                -3.763635360e-05, 1.724474650e-08,
                -3.170578710e-12,
                -4.164876260e+04, 2.593016460e+01]  ),
       NASA(   [1394.0, 5000.0], [1.199880500e+01, 1.030446760e-02,
                -3.581872560e-06, 5.621735610e-10,
                -3.286478620e-14,
                -4.545515530e+04,
                -3.731047020e+01]  )
                ),
       )

species(name = "CH3O2H",
    atoms = "C:1, H:4, O:2", 
    thermo = (
       NASA(   [300.0, 1367.0], [2.838800240e+00, 1.860962490e-02,
                -8.481654120e-06, 1.003874510e-09,
                1.716124290e-13, -1.740337530e+04,
                1.160924330e+01]  ),
       NASA(   [1367.0, 5000.0], [8.804092890e+00, 8.094272180e-03,
                -2.858432740e-06, 4.533697540e-10,
                -2.669807070e-14,
                -1.985121740e+04,
                -2.170005910e+01]  )
                ),
       )

species(name = "C2H5COOH",
    atoms = "C:3, H:6, O:2", 
    thermo = (
       NASA(   [300.0, 1387.0], [1.009748890e+00, 4.250112960e-02,
                -3.212342360e-05, 1.303331380e-08,
                -2.207305030e-12,
                -5.658626370e+04, 2.170945720e+01]  ),
       NASA(   [1387.0, 5000.0], [1.273164770e+01, 1.399434180e-02,
                -4.778249520e-06, 7.411899160e-10,
                -4.298272780e-14,
                -6.059472290e+04,
                -4.093086060e+01]  )
                ),
       )

species(name = "CH3O2",
    atoms = "C:1, H:3, O:2", 
    thermo = (
       NASA(   [300.0, 1365.0], [3.804975900e+00, 9.807846600e-03,
                -3.909406240e-07,
                -2.230726020e-09, 6.433108200e-13,
                -4.556257960e+02, 7.817891000e+00]  ),
       NASA(   [1365.0, 5000.0], [6.347188010e+00, 7.920893580e-03,
                -2.766019130e-06, 4.353606310e-10,
                -2.549847620e-14,
                -1.834360550e+03,
                -7.425525450e+00]  )
                ),
       )

species(name = "CH4",
    atoms = "C:1, H:4", 
    thermo = (
       NASA(   [300.0, 1462.0], [3.721130200e+00, -2.502932890e-03,
                1.902465340e-05, -1.468712530e-08,
                3.437911520e-12, -1.014240990e+04,
                1.227765960e+00]  ),
       NASA(   [1462.0, 5000.0], [4.096176530e+00, 7.443308450e-03,
                -2.638719000e-06, 4.195776040e-10,
                -2.475080500e-14,
                -1.138357040e+04,
                -4.675613830e+00]  )
                ),
       )

species(name = "CH3CHCOOH",
    atoms = "C:3, H:5, O:2", 
    thermo = (
       NASA(   [300.0, 1388.0], [6.983898150e-01, 4.448425340e-02,
                -3.794478210e-05, 1.683196740e-08,
                -3.017428510e-12,
                -3.563138050e+04, 2.305857610e+01]  ),
       NASA(   [1388.0, 5000.0], [1.346929580e+01, 1.124280800e-02,
                -3.833978670e-06, 5.946973500e-10,
                -3.450130970e-14,
                -3.974838830e+04,
                -4.436047540e+01]  )
                ),
       )

species(name = "CH3",
    atoms = "C:1, H:3", 
    thermo = (
       NASA(   [300.0, 1389.0], [3.438581620e+00, 4.077526640e-03,
                3.198309940e-07, -9.476693900e-10,
                2.218281660e-13, 1.631640180e+04,
                2.528074060e+00]  ),
       NASA(   [1389.0, 5000.0], [3.512813760e+00, 5.114126130e-03,
                -1.676320500e-06, 2.524951740e-10,
                -1.433029230e-14, 1.612380270e+04,
                1.624361120e+00]  )
                ),
       )

species(name = "C2H3CHO",
    atoms = "C:3, H:4, O:1", 
    thermo = (
       NASA(   [300.0, 1393.0], [2.923551620e-01, 3.543214170e-02,
                -2.949363240e-05, 1.281001240e-08,
                -2.261441080e-12,
                -1.165215840e+04, 2.288782800e+01]  ),
       NASA(   [1393.0, 5000.0], [1.041849590e+01, 9.489633210e-03,
                -3.293105290e-06, 5.162792030e-10,
                -3.015872910e-14,
                -1.496302810e+04,
                -3.072350610e+01]  )
                ),
       )

species(name = "CH2COOH",
    atoms = "C:2, H:3, O:2", 
    thermo = (
       NASA(   [300.0, 1396.0], [1.457149000e+00, 3.080730870e-02,
                -2.700762730e-05, 1.200880990e-08,
                -2.130757710e-12,
                -3.024411830e+04, 1.780332100e+01]  ),
       NASA(   [1396.0, 5000.0], [1.058419970e+01, 6.824715540e-03,
                -2.379340500e-06, 3.742368190e-10,
                -2.191245270e-14,
                -3.314025410e+04,
                -3.025878160e+01]  )
                ),
       )

species(name = "CH2",
    atoms = "C:1, H:2", 
    thermo = (
       NASA(   [250.0, 1000.0], [3.762237000e+00, 1.159819000e-03,
                2.489585000e-07, 8.800836000e-10,
                -7.332435000e-13, 4.536791000e+04,